Circuit: * D:\FPGA\TP_Ltspice\Régistre\Registre.asc

Direct Newton iteration for .op point succeeded.

Date: Wed May 10 13:39:22 2023
Total elapsed time: 0.118 seconds.

tnom = 27
temp = 27
method = modified trap
totiter = 5472
traniter = 5469
tranpoints = 2734
accept = 2395
rejected = 339
matrix size = 7
fillins = 0
solver = Normal
Avg thread counts: 1.1/1.2/1.2/1.1
Matrix Compiler1: 160 bytes object code size  0.2/0.2/[0.2]
Matrix Compiler2: off  [0.1]/0.3/0.1

