Circuit: * C:\Users\Sefofo\OneDrive\Sefofo\OneDrive\Bureau\Formation_FPGA\Formatiion_FPGA\Ltpsice\Bascule\Bascule\Bascule.asc

WARNING: Less than two connections to node q.  This node is used by a1.
Direct Newton iteration for .op point succeeded.

Date: Wed May 10 13:38:14 2023
Total elapsed time: 0.084 seconds.

tnom = 27
temp = 27
method = modified trap
totiter = 2930
traniter = 2927
tranpoints = 1463
accept = 1381
rejected = 82
matrix size = 6
fillins = 0
solver = Normal
Avg thread counts: 1.2/1.4/1.4/1.2
Matrix Compiler1: off  [0.1]/0.2/0.2
Matrix Compiler2: off  [0.1]/0.4/0.1

