Circuit: * D:\FPGA\TP_Ltspice\Full substractor\Draft2.asc

Direct Newton iteration for .op point succeeded.

Date: Tue May  2 10:52:49 2023
Total elapsed time: 0.211 seconds.

tnom = 27
temp = 27
method = modified trap
totiter = 5472
traniter = 5469
tranpoints = 2734
accept = 2395
rejected = 339
matrix size = 7
fillins = 0
solver = Normal
Avg thread counts: 1.1/1.2/1.2/1.1
Matrix Compiler1: 160 bytes object code size  0.4/0.4/[0.3]
Matrix Compiler2: 319 bytes object code size  0.3/0.6/[0.3]

