Circuit: * D:\FPGA\TP_Ltspice\Full substractor\FullSubstractor.asc

WARNING: Less than two connections to node d.  This node is used by a2.
WARNING: Less than two connections to node bout.  This node is used by a5.
Direct Newton iteration for .op point succeeded.

Date: Tue May  9 23:18:36 2023
Total elapsed time: 0.173 seconds.

tnom = 27
temp = 27
method = modified trap
totiter = 10780
traniter = 10777
tranpoints = 5335
accept = 4535
rejected = 800
matrix size = 13
fillins = 0
solver = Normal
Avg thread counts: 1.1/1.1/1.1/1.1
Matrix Compiler1: 244 bytes object code size  0.2/0.3/[0.2]
Matrix Compiler2: off  [0.1]/0.6/0.2

