Circuit: * C:\Users\Sefofo\OneDrive\Sefofo\OneDrive\Bureau\Formation_FPGA\Formatiion_FPGA\Ltpsice\Porteslogiques\Inverseuse\nMos.asc

Direct Newton iteration for .op point succeeded.

Date: Wed May 10 11:24:33 2023
Total elapsed time: 0.151 seconds.

tnom = 27
temp = 27
method = modified trap
totiter = 4382
traniter = 4377
tranpoints = 1609
accept = 1484
rejected = 125
matrix size = 9
fillins = 0
solver = Normal
Avg thread counts: 1.1/1.4/1.4/1.1
Matrix Compiler1: 394 bytes object code size  0.6/0.5/[0.4]
Matrix Compiler2: 633 bytes object code size  0.4/0.7/[0.3]

