Circuit: * D:\FPGA\TP_Ltspice\NAND\PorteNand.asc

Direct Newton iteration for .op point succeeded.
Changing Tseed to 1e-09
Changing Tseed to 1e-11
Changing Tseed to 1e-08
Changing Tseed to 1e-12

Date: Mon May  8 23:10:40 2023
Total elapsed time: 0.128 seconds.

tnom = 27
temp = 27
method = modified trap
totiter = 7030
traniter = 7026
tranpoints = 2822
accept = 2510
rejected = 308
matrix size = 8
fillins = 0
solver = Normal
Avg thread counts: 1.1/1.2/1.2/1.1
Matrix Compiler1: 318 bytes object code size  0.2/0.2/[0.2]
Matrix Compiler2: off  [0.1]/0.2/0.2

