Circuit: * C:\Users\Sefofo\OneDrive\Sefofo\OneDrive\Bureau\Formation_FPGA\Formatiion_FPGA\Ltpsice\Porteslogiques\NOR\PorteNOR.asc

Direct Newton iteration for .op point succeeded.

Date: Wed May 10 11:28:13 2023
Total elapsed time: 0.183 seconds.

tnom = 27
temp = 27
method = modified trap
totiter = 6840
traniter = 6828
tranpoints = 2938
accept = 2558
rejected = 380
matrix size = 8
fillins = 0
solver = Normal
Avg thread counts: 1.1/1.2/1.2/1.1
Matrix Compiler1: 300 bytes object code size  0.4/0.4/[0.3]
Matrix Compiler2: off  [0.2]/0.6/0.3

