Circuit: * D:\FPGA\TP_Ltspice\Compteur\compt.asc

WARNING: Less than two connections to node q3.  This node is used by a1.
Direct Newton iteration for .op point succeeded.

Date: Wed May 10 13:38:44 2023
Total elapsed time: 0.081 seconds.

tnom = 27
temp = 27
method = modified trap
totiter = 3756
traniter = 3753
tranpoints = 1875
accept = 1710
rejected = 165
matrix size = 13
fillins = 0
solver = Normal
Avg thread counts: 1.2/1.3/1.3/1.2
Matrix Compiler1: 244 bytes object code size  0.2/0.3/[0.2]
Matrix Compiler2: off  [0.1]/0.3/0.2

