Circuit: * D:\FPGA\TP_Ltspice\LatchFlipFlop_TD__265__0\Flipflop\flipflop.asc

WARNING: Less than two connections to node q.  This node is used by a2.
Direct Newton iteration for .op point succeeded.

Date: Thu May  4 21:42:25 2023
Total elapsed time: 0.108 seconds.

tnom = 27
temp = 27
method = modified trap
totiter = 5472
traniter = 5469
tranpoints = 2734
accept = 2395
rejected = 339
matrix size = 8
fillins = 0
solver = Normal
Avg thread counts: 1.1/1.2/1.2/1.1
Matrix Compiler1: 174 bytes object code size  0.2/0.2/[0.2]
Matrix Compiler2: off  [0.1]/0.2/0.1

