Circuit: * D:\FPGA\TP_Ltspice\AND\PorteAND_0.asc

Direct Newton iteration for .op point succeeded.

Date: Tue May  9 01:36:15 2023
Total elapsed time: 0.185 seconds.

tnom = 27
temp = 27
method = modified trap
totiter = 8644
traniter = 8632
tranpoints = 3078
accept = 2704
rejected = 374
matrix size = 8
fillins = 0
solver = Normal
Avg thread counts: 1.1/1.2/1.2/1.1
Matrix Compiler1: 318 bytes object code size  0.4/0.3/[0.2]
Matrix Compiler2: 596 bytes object code size  0.3/0.2/[0.2]

