Circuit: * D:\FPGA\TP_Ltspice\AND\PorteAND.asc

Direct Newton iteration for .op point succeeded.

Date: Mon May  8 23:08:32 2023
Total elapsed time: 0.155 seconds.

tnom = 27
temp = 27
method = modified trap
totiter = 7544
traniter = 7528
tranpoints = 2941
accept = 2596
rejected = 345
matrix size = 8
fillins = 0
solver = Normal
Avg thread counts: 1.1/1.2/1.2/1.1
Matrix Compiler1: 318 bytes object code size  0.2/0.3/[0.2]
Matrix Compiler2: off  [0.2]/0.3/0.2

